test/converter/testfiles/test_ucte_NL.uct
##C 2007.05.01
UCTE Export
test_ucte-Berechnungsfall

----- NODE BLOCK -----
_________1_________2_________3_________4_________5_________6_________7_________8_________9________10________11________12________13
1234567890123456789012345678901234567890123456789012345678901234567890123456789012345678901234567890123456789012345678901234567890
Node    |Node Name   |S|T|Volt  |PLoad  |QLoad  |PGen   |QGen   |Pmin   |Pmax   |Qmin   |Qmax   |Sta  |Pprim  |Sks__  |X/R    |T|

##N
##ZNL
NBUS1_1_ Bus1_1_NL    0 3 383.80       0       0 -10.021 197.160 9.99900 -9.9990 1.82725 -1.8273
NBUS1_1L Bus1_NL      0 3 383.80       0       0 -5.2390 105.764 9.99900 -9.9990 1.82725 -1.8273
NBUS2_1_ Bus2_1_NL    0 2 385.34       0       0 9.83602 -19.171
NBUS2_1L Bus2_NL      0 2 384.62       0       0 5.18739 -9.9762 9.99900 -9.9990 -0.0998 -0.0998
##C

----- LINE BLOCK -----
_________1_________2_________3_________4_________5_________6_________7
1234567890123456789012345678901234567890123456789012345678901234567890
Node 1  |Node 2  |O|S|R(Ohm)|X(Ohm)|B(uS)   |I(A)  |Element Name|

##L
NBUS1_1_ NBUS2_1_ 1 0 0.7198 3.0866 42.16017    768 line2_NL
NBUS1_1L NBUS2_1L 1 0 0.7198 3.0866 42.16017    768 line1_NL
##C

----- 2 WINDING TRANSFORMER BLOCK -----
_________1_________2_________3_________4_________5_________6_________7_________8_________9
123456789012345678901234567890123456789012345678901234567890123456789012345678901234567890
Node 1  |Node 2  |O|S|U1   |U2   |Sn   |R(Ohm)|X(Ohm)|B(uS)   |G(uS) |I(A)  |Element Name|

##T
##C

----- 2 WINDINGS TRANSFORMERS REGULATION BLOCK -----
_________1_________2_________3_________4_________5_________6_________7
1234567890123456789012345678901234567890123456789012345678901234567890
Node 1  |Node 2  |O|du   |mx|Tap|U    |du   |phitr|mx|Tap|P    |Type|

##R
##C

----- 2 WINDINGS TRANSFORMERS DEPENDING ON THE TAP POSITION BLOCK -----
_________1_________2_________3_________4_________5_________6
123456789012345678901234567890123456789012345678901234567890
Node 1  |Node 2  |O| |Tap|R(Ohm)|X(Ohm)|du   |phi  |

##TT
